/batch
/config,noeldb,1     ! force off writing results to database
*get,_wallstrt,active,,time,wall
! ANSYS input file written by Workbench version 2024 R2
! File used for geometry attach: C:\Users\mdn\Desktop\tmp\FinFEA_CDR_Correct_files\dp0\global\MECH\SYS-2\AssembledModel\SYS-2.pmdb
/title,FinFEA_CDR_Correct--Structure statique (B3)
! ****** Begin Custom Load Command Snippet ******
/COM, ACT Extensions:
/COM,     LSDYNA, 2024.2
/COM,     5f463412-bd3e-484b-87e7-cbc0a665e474, wbex
/COM,/COM,     ANSYSMotion, 2024.2
/COM,     20180725-3f81-49eb-9f31-41364844c769, wbex
/COM,
! ****** End   Custom Load Command Snippet ******
*DIM,_wb_ProjectScratch_dir,string,248
_wb_ProjectScratch_dir(1) = 'C:\Users\mdn\Desktop\tmp\_ProjectScratch\Scr60DC\'
*DIM,_wb_SolverFiles_dir,string,248
_wb_SolverFiles_dir(1) = 'C:\Users\mdn\Desktop\tmp\FinFEA_CDR_Correct_files\dp0\SYS-2\MECH\'
*DIM,_wb_userfiles_dir,string,248
_wb_userfiles_dir(1) = 'C:\Users\mdn\Desktop\tmp\FinFEA_CDR_Correct_files\user_files\'
/com,--- Data in consistent NMM units. See Solving Units in the help system for more information.
/units,MPA
/nopr
/wb,file,start              !  signify a WB generated input file
/prep7
! Turn off shape checking because checks already performed inside WB mesher.
! See help system for more information.
SHPP,OFF,,NOWARN
/nolist
etcon,set             ! allow ANSYS to choose best KEYOP's for 180x elements, resets any applicable keyopt to MAPDL defaults
/com,*********** Nodes for the whole assembly ***********
nblock,3,,10419
(1i9,3e20.9e3)
        1     1.676400000E+02     3.175000000E+00    -8.569523437E+01
        2     8.382000000E+01     3.175000000E+00    -1.571625000E+02
        3    -5.551115123E-14     3.175000000E+00    -2.286000000E+02
        4     1.661826885E+02     3.175000000E+00    -8.696702688E+01
        5     1.647083073E+02     3.175000000E+00    -8.822360176E+01
        6     1.632347524E+02     3.175000000E+00    -8.947947236E+01
        7     1.617620237E+02     3.175000000E+00    -9.073463887E+01
        8     1.602899834E+02     3.175000000E+00    -9.198921873E+01
        9     1.588184592E+02     3.175000000E+00    -9.324335865E+01
       10     1.573472963E+02     3.175000000E+00    -9.449719062E+01
       11     1.558763743E+02     3.175000000E+00    -9.575081732E+01
       12     1.544056072E+02     3.175000000E+00    -9.700431205E+01
       13     1.529349368E+02     3.175000000E+00    -9.825772431E+01
       14     1.514643256E+02     3.175000000E+00    -9.951108617E+01
       15     1.499937498E+02     3.175000000E+00    -1.007644178E+02
       16     1.485231950E+02     3.175000000E+00    -1.020177315E+02
       17     1.470526524E+02     3.175000000E+00    -1.032710349E+02
       18     1.455821169E+02     3.175000000E+00    -1.045243322E+02
       19     1.441115854E+02     3.175000000E+00    -1.057776261E+02
       20     1.426410562E+02     3.175000000E+00    -1.070309180E+02
! ... 9453 like lines cut
/wb,elem,start            !  set before creation of elements
/com,*********** Elements for Body 1 'ACP-Pre\Surface(ACP (Pre))' ***********
et,1,181
keyo,1,1,0          ! bending and membrane stiffness
keyo,1,3,2
keyo,1,8,2          ! set Layer data storage
eblock,19,solid,,9335
(19i9)
        1        1        1        1        0        0        0        0        4        0        1     4627     4628     4853     4853
        1        1        1        1        0        0        0        0        4        0        2      632      600      633      633
        1        1        1        1        0        0        0        0        4        0        3      699      758     5990     5990
        1        1        1        1        0        0        0        0        4        0        4      637     9457      678      678
        1        1        1        1        0        0        0        0        4        0        5     5962     6531     6980     6980
        1        1        1        1        0        0        0        0        4        0        6     3244     3241     3069     3069
        1        1        1        1        0        0        0        0        4        0        7     2677     2865     2864     2864
        1        1        1        1        0        0        0        0        4        0        8      960     1049     1052     1052
        1        1        1        1        0        0        0        0        4        0        9     1949     1822     6579     6579
        1        1        1        1        0        0        0        0        4        0       10     9455     9456     1813     1813
        1        1        1        1        0        0        0        0        4        0       11      546      547      550      550
        1        1        1        1        0        0        0        0        4        0       12     6469     1050     1049     1049
        1        1        1        1        0        0        0        0        4        0       13      824      895      872      872
        1        1        1        1        0        0        0        0        4        0       14     1048     5894     1099     1099
        1        1        1        1        0        0        0        0        4        0       15      845     6028      846      846
        1        1        1        1        0        0        0        0        4        0       16      804      778     6028     6028
        1        1        1        1        0        0        0        0        4        0       17      733      640      679      679
        1        1        1        1        0        0        0        0        4        0       18      631      672      671      671
        1        1        1        1        0        0        0        0        4        0       19     2235     2087     2072     2072
        1        1        1        1        0        0        0        0        4        0       20     1324     1239     1238     1238
! ... 9316 like lines cut
! Material Id = {CF003563-BDFB-4DAE-B35A-04C6C5AD08CB}
/wb,elem,end               !  done creating elements
/com,*********** Send User Defined Coordinate System(s) ***********
local,12,0,0.,0.,0.,0.,0.,0.
csys,0
toffst,273.15,      ! Temperature offset from absolute zero
/com,*********** Set Reference Temperature ***********
tref,30.
/wb,mat,start              !  starting to send materials
/com,*********** Send Materials ***********
MP,DENS,1,1.451e-09,	! tonne mm^-3
MP,EX,1,59160,	! tonne s^-2 mm^-1
MP,EY,1,59160,	! tonne s^-2 mm^-1
MP,EZ,1,7500,	! tonne s^-2 mm^-1
MP,PRXY,1,0.04,
MP,PRYZ,1,0.3,
MP,PRXZ,1,0.3,
MP,GXY,1,3300,	! tonne s^-2 mm^-1
MP,GYZ,1,2700,	! tonne s^-2 mm^-1
MP,GXZ,1,2700,	! tonne s^-2 mm^-1

TB,FCLI,1,1,9,2
TBDATA,1,0.0092,-0.0084,0.0092,-0.0084,0.0078,-0.011
TBDATA,7,0.02,0.015
MP,ALPX,1,2.2e-06,	! C^-1
MP,ALPY,1,2.2e-06,	! C^-1
MP,ALPZ,1,1e-05,	! C^-1

TB,FCLI,1,1,20,1
TBDATA,1,513
TBDATA,2,-437
TBDATA,3,513
TBDATA,4,-437
TBDATA,5,50
TBDATA,6,-150
TBDATA,7,120
TBDATA,8,55
TBDATA,9,55
TBDATA,10,-1
TBDATA,11,-1
TBDATA,12,-1
MP,UVID,1,4832fc3a-0018-4a18-903c-a5951b55e12a
MP,UMID,1,7ab9c060-4547-4561-aab3-d3fd3c4952ed

/wb,mat,end                !  done sending materials
/com,*********** Send Sheet Properties ***********
sectype,1,shell
secdata,1.e-007
secoff,mid


/com,*********** Sending Coordinate Systems for External Layered Section***********
local,13,0,161.172283211566,3.175,-80.8906975155469,0.,-90.,0.
local,14,0,70.9,3.2,-116.3,0.,0.,-90.
csys,0

/com,*********** Sending Materials for External Layered Section***********
MP,DENS,2,1.451e-09,	! tonne mm^-3
MP,EX,2,59160,	! tonne s^-2 mm^-1
MP,EY,2,59160,	! tonne s^-2 mm^-1
MP,EZ,2,7500,	! tonne s^-2 mm^-1
MP,PRXY,2,0.04,
MP,PRYZ,2,0.3,
MP,PRXZ,2,0.3,
MP,GXY,2,3300,	! tonne s^-2 mm^-1
MP,GYZ,2,2700,	! tonne s^-2 mm^-1
MP,GXZ,2,2700,	! tonne s^-2 mm^-1

TB,FCLI,2,1,9,2
TBDATA,1,0.0092,-0.0084,0.0092,-0.0084,0.0078,-0.011
TBDATA,7,0.02,0.015
MP,ALPX,2,2.2e-06,	! C^-1
MP,ALPY,2,2.2e-06,	! C^-1
MP,ALPZ,2,1e-05,	! C^-1

TB,FCLI,2,1,20,1
TBDATA,1,513
TBDATA,2,-437
TBDATA,3,513
TBDATA,4,-437
TBDATA,5,50
TBDATA,6,-150
TBDATA,7,120
TBDATA,8,55
TBDATA,9,55
TBDATA,10,-1
TBDATA,11,-1
TBDATA,12,-1
MP,UVID,2,4832fc3a-0018-4a18-903c-a5951b55e12a
MP,UMID,2,7ab9c060-4547-4561-aab3-d3fd3c4952ed


/com,*********** Send External Layered Section Properties ***********
CMBLOCK,_CM_EXT_SEC_0,ELEM,     9335
(8i10)
         1         2         3         4         5         6         7         8
         9        10        11        12        13        14        15        16
        17        18        19        20        21        22        23        24
        25        26        27        28        29        30        31        32
        33        34        35        36        37        38        39        40
        41        42        43        44        45        46        47        48
        49        50        51        52        53        54        55        56
        57        58        59        60        61        62        63        64
        65        66        67        68        69        70        71        72
        73        74        75        76        77        78        79        80
        81        82        83        84        85        86        87        88
        89        90        91        92        93        94        95        96
        97        98        99       100       101       102       103       104
       105       106       107       108       109       110       111       112
       113       114       115       116       117       118       119       120
       121       122       123       124       125       126       127       128
       129       130       131       132       133       134       135       136
       137       138       139       140       141       142       143       144
       145       146       147       148       149       150       151       152
       153       154       155       156       157       158       159       160
! ... 1147 like lines cut
sectype,3,shell
secdata,0.229,2,0
secdata,0.229,2,0
secdata,0.229,2,45
secdata,0.229,2,0
secdata,0.229,2,0
secdata,0.229,2,45
secdata,0.229,2,0
secdata,0.229,2,0
secoff,bottom
emod,_cm_ext_sec_0,secnum,3
emod,1,esys,13
emod,2,esys,13
emod,3,esys,13
emod,4,esys,13
emod,5,esys,13
emod,6,esys,13
emod,7,esys,13
emod,8,esys,13
emod,9,esys,13
emod,10,esys,13
emod,11,esys,13
emod,12,esys,13
emod,13,esys,13
emod,14,esys,13
emod,15,esys,13
emod,16,esys,13
emod,17,esys,13
emod,18,esys,13
emod,19,esys,13
emod,20,esys,13
! ... 9315 like lines cut

!************************* Model Summary ********************
!ACP-Pre\Surface(ACP (Pre)),	CF,	matid,	1
!************************* End Model Summary ********************
! get the diagonal of the bounding box. Needed later for other things
*get,_xmin,node,,mnloc,x
*get,_ymin,node,,mnloc,y
*get,_zmin,node,,mnloc,z
*get,_xmax,node,,mxloc,x
*get,_ymax,node,,mxloc,y
*get,_zmax,node,,mxloc,z
_ASMDIAG=(_xmax-_xmin)*(_xmax-_xmin)+(_ymax-_ymin)*(_ymax-_ymin)+(_zmax-_zmin)*(_zmax-_zmin)
_ASMDIAG=SQRT(_ASMDIAG)
/wb,contact,start          !  starting to send contact
/wb,contact,end            !  done creating contacts
/com,*********** Send Named Selection as Node Component ***********
CMBLOCK,LIGNE_ACP__PRE__,NODE,      114
(8i10)
         2         3         4         5         6         7         8         9
        10        11        12        13        14        15        16        17
        18        19        20        21        22        23        24        25
        26        27        28        29        30        31        32        33
        34        35        36        37        38        39        40        41
        42        43        44        45        46        47        48        49
        50        51        52        53        54        55        56        57
        58        59        60        61        62        63        64        65
        66        67        68        69        70        71        72        73
        74        75        76        77        78        79        80        81
        82        83        84        85        86        87        88        89
        90        91        92        93        94        95        96        97
        98        99       100       101       102       103       104       105
       106       107       108       109       110       111       112       113
       114       115
/com,*********** Send Named Selection as Node Component ***********
CMBLOCK,POINT_ACP__PRE__,NODE,        1
(8i10)
         2
/golist
/wb,load,start             !  starting to send loads
/com,*********** Fixed Supports ***********
CMBLOCK,_FIXEDSU,NODE,      157
(8i10)
         3       131       261       262       263       264       265       266
       267       268       269       270       271       272       273       274
       275       276       277       278       279       280       281       282
       283       284       285       286       287       288       289       290
       291       292       293       294       295       296       297       298
       299       300       301       302       303       304       305       306
       307       308       309       310       311       312       313       314
       315       316       317       318       319       320       321       322
       323       324       325       326       327       328       329       330
       331       332       333       334       335       336       337       338
       339       340       341       342       343       344       345       346
       347       348       349       350       351       352       353       354
       355       356       357       358       359       360       361       362
       363       364       365       366       367       368       369       370
       371       372       373       374       375       376       377       378
       379       380       381       382       383       384       385       386
       387       388       389       390       391       392       393       394
       395       396       397       398       399       400       401       402
       403       404       405       406       407       408       409       410
       411       412       413       414       415
cmsel,s,_FIXEDSU
d,all,all
nsel,all
/com,*********** Define Pressure Vector Using Surface Effect Elements ***********
local,15,0,0.,0.,0.,0.,0.,0.
csys,0
et,5,154
mat,5
eblock,10,,,9335
(15i9)
     9336        5        5        5       15     4627     4628     4853     4853
     9337        5        5        5       15      632      600      633      633
     9338        5        5        5       15      699      758     5990     5990
     9339        5        5        5       15      637     9457      678      678
     9340        5        5        5       15     5962     6531     6980     6980
     9341        5        5        5       15     3244     3241     3069     3069
     9342        5        5        5       15     2677     2865     2864     2864
     9343        5        5        5       15      960     1049     1052     1052
     9344        5        5        5       15     1949     1822     6579     6579
     9345        5        5        5       15     9455     9456     1813     1813
     9346        5        5        5       15      546      547      550      550
     9347        5        5        5       15     6469     1050     1049     1049
     9348        5        5        5       15      824      895      872      872
     9349        5        5        5       15     1048     5894     1099     1099
     9350        5        5        5       15      845     6028      846      846
     9351        5        5        5       15      804      778     6028     6028
     9352        5        5        5       15      733      640      679      679
     9353        5        5        5       15      631      672      671      671
     9354        5        5        5       15     2235     2087     2072     2072
     9355        5        5        5       15     1324     1239     1238     1238
! ... 9316 like lines cut
esel,s,type,,5
keyop,5,2,1         ! Apply load in local coordinate system
keyop,5,7,0         ! Use deformed area for application of load
esel,all

*DIM,_loadvari345y,TABLE,3,1,1,TIME, , , 0
! Time values
*TAXIS,_loadvari345y(1),1,0.,72.,100.
! Load values
_loadvari345y(1,1,1) = 0.
_loadvari345y(2,1,1) = -3.1986e-003
_loadvari345y(3,1,1) = -5.e-003


/gst,on,on
fini
*get,_numnode,node,0,count
*get,_numelem,elem,0,count
*get, _MAXELEMNUM, elem, 0, NUM, MAX
*get, _MAXNODENUM, node, 0, NUM, MAX
*get, _MAXELEMTYPE, etyp, 0, NUM, MAX
*get, _MAXREALCONST, rcon, 0, NUM, MAX
/go
/wb,load,end               !  done creating loads
/com,--- Number of total nodes = %_numnode%
/com,--- Number of contact elements = 9335
/com,--- Number of spring elements = 0
/com,--- Number of bearing elements = 0
/com,--- Number of solid elements = 9335
/com,--- Number of condensed parts = 0
/com,--- Number of total elements = %_numelem%
*get,_wallbsol,active,,time,wall
/com,****************************************************************************
/com,*************************    SOLUTION       ********************************
/com,****************************************************************************
/solu
antype,0                   ! static analysis
_thickRatio=  0     ! Ratio of thick parts in the model
eqsl,sparse,,,,,1
cntr,print,1               ! print out contact info and also make no initial contact an error
cncheck,dmp		!	Enable program controlled contact splitting for distributed memory parallel run
dmpoption,emat,no             ! Don't combine emat file for DANSYS
dmpoption,esav,no             ! Don't combine esav file for DANSYS
nldiag,cont,iter           ! print out contact info each equilibrium iteration
rescontrol,,none                 ! Do not keep any restart files
/com,****************************************************
/com,******************* SOLVE FOR LS 1 OF 100 ****************
esel,s,type,,5
nsle
sfe,all,1,pres,1,0.
sfe,all,2,pres,1,%_loadvari345y%
sfe,all,3,pres,1,0.
nsel,all
esel,all
/nopr
/gopr
autots,off                 ! User turned off automatic time stepping
nsub,1,1,1
time,1.
outres,erase
outres,all,none
outres,nsol,all,
outres,rsol,all
outres,eangl,all
outres,etmp,all
outres,veng,all
outres,strs,all,
outres,epel,all,
outres,eppl,all,
outres,cont,all,
! *********** WB SOLVE COMMAND ***********
! check interactive state
*get,ANSINTER_,active,,int
*if,ANSINTER_,ne,0,then
/eof
*endif
solve
/com *************** Write FE CONNECTORS ********* 
CEWRITE,file,ce,,INTE
/com,****************************************************
/com,*************** FINISHED SOLVE FOR LS 1 *************
/com,****************************************************
/com,******************* SOLVE FOR LS 2 OF 100 ****************
/nopr
/gopr
nsub,1,1,1
time,2.
outres,erase
outres,all,none
outres,nsol,all,
outres,rsol,all
outres,eangl,all
outres,etmp,all
outres,veng,all
outres,strs,all,
outres,epel,all,
outres,eppl,all,
outres,cont,all,
solve
/com,****************************************************
/com,*************** FINISHED SOLVE FOR LS 2 *************
/com,****************************************************
/com,******************* SOLVE FOR LS 3 OF 100 ****************
/nopr
/gopr
nsub,1,1,1
time,3.
outres,erase
outres,all,none
outres,nsol,all,
outres,rsol,all
outres,eangl,all
outres,etmp,all
outres,veng,all
outres,strs,all,
outres,epel,all,
outres,eppl,all,
outres,cont,all,
solve
/com,****************************************************
/com,*************** FINISHED SOLVE FOR LS 3 *************
/com,****************************************************
/com,******************* SOLVE FOR LS 4 OF 100 ****************
/nopr
/gopr
nsub,1,1,1
time,4.
outres,erase
outres,all,none
outres,nsol,all,
outres,rsol,all
outres,eangl,all
outres,etmp,all
outres,veng,all
outres,strs,all,
outres,epel,all,
outres,eppl,all,
outres,cont,all,
solve
/com,****************************************************
/com,*************** FINISHED SOLVE FOR LS 4 *************
/com,****************************************************
/com,******************* SOLVE FOR LS 5 OF 100 ****************
/nopr
/gopr
nsub,1,1,1
time,5.
outres,erase
outres,all,none
outres,nsol,all,
outres,rsol,all
outres,eangl,all
outres,etmp,all
outres,veng,all
outres,strs,all,
outres,epel,all,
outres,eppl,all,
outres,cont,all,
solve
/com,****************************************************
/com,*************** FINISHED SOLVE FOR LS 5 *************
/com,****************************************************
/com,******************* SOLVE FOR LS 6 OF 100 ****************
/nopr
/gopr
nsub,1,1,1
time,6.
outres,erase
outres,all,none
outres,nsol,all,
outres,rsol,all
outres,eangl,all
outres,etmp,all
outres,veng,all
outres,strs,all,
outres,epel,all,
outres,eppl,all,
outres,cont,all,
solve
/com,****************************************************
/com,*************** FINISHED SOLVE FOR LS 6 *************
/com,****************************************************
/com,******************* SOLVE FOR LS 7 OF 100 ****************
/nopr
/gopr
nsub,1,1,1
time,7.
outres,erase
outres,all,none
outres,nsol,all,
outres,rsol,all
outres,eangl,all
outres,etmp,all
outres,veng,all
outres,strs,all,
outres,epel,all,
outres,eppl,all,
outres,cont,all,
solve
/com,****************************************************
/com,*************** FINISHED SOLVE FOR LS 7 *************
/com,****************************************************
/com,******************* SOLVE FOR LS 8 OF 100 ****************
/nopr
/gopr
nsub,1,1,1
time,8.
outres,erase
outres,all,none
outres,nsol,all,
outres,rsol,all
outres,eangl,all
outres,etmp,all
outres,veng,all
outres,strs,all,
outres,epel,all,
outres,eppl,all,
outres,cont,all,
solve
/com,****************************************************
/com,*************** FINISHED SOLVE FOR LS 8 *************
/com,****************************************************
/com,******************* SOLVE FOR LS 9 OF 100 ****************
/nopr
/gopr
nsub,1,1,1
time,9.
outres,erase
outres,all,none
outres,nsol,all,
outres,rsol,all
outres,eangl,all
outres,etmp,all
outres,veng,all
outres,strs,all,
outres,epel,all,
outres,eppl,all,
outres,cont,all,
solve
/com,****************************************************
/com,*************** FINISHED SOLVE FOR LS 9 *************
/com,****************************************************
/com,******************* SOLVE FOR LS 10 OF 100 ****************
/nopr
/gopr
nsub,1,1,1
time,10.
outres,erase
outres,all,none
outres,nsol,all,
outres,rsol,all
outres,eangl,all
outres,etmp,all
outres,veng,all
outres,strs,all,
outres,epel,all,
outres,eppl,all,
outres,cont,all,
solve
/com,****************************************************
/com,*************** FINISHED SOLVE FOR LS 10 *************
/com,****************************************************
/com,******************* SOLVE FOR LS 11 OF 100 ****************
/nopr
/gopr
nsub,1,1,1
time,11.
outres,erase
outres,all,none
outres,nsol,all,
outres,rsol,all
outres,eangl,all
outres,etmp,all
outres,veng,all
outres,strs,all,
outres,epel,all,
outres,eppl,all,
outres,cont,all,
solve
/com,****************************************************
/com,*************** FINISHED SOLVE FOR LS 11 *************
/com,****************************************************
/com,******************* SOLVE FOR LS 12 OF 100 ****************
/nopr
/gopr
nsub,1,1,1
time,12.
outres,erase
outres,all,none
outres,nsol,all,
outres,rsol,all
outres,eangl,all
outres,etmp,all
outres,veng,all
outres,strs,all,
outres,epel,all,
outres,eppl,all,
outres,cont,all,
solve
/com,****************************************************
/com,*************** FINISHED SOLVE FOR LS 12 *************
/com,****************************************************
/com,******************* SOLVE FOR LS 13 OF 100 ****************
/nopr
/gopr
nsub,1,1,1
time,13.
outres,erase
outres,all,none
outres,nsol,all,
outres,rsol,all
outres,eangl,all
outres,etmp,all
outres,veng,all
outres,strs,all,
outres,epel,all,
outres,eppl,all,
outres,cont,all,
solve
/com,****************************************************
/com,*************** FINISHED SOLVE FOR LS 13 *************
/com,****************************************************
/com,******************* SOLVE FOR LS 14 OF 100 ****************
/nopr
/gopr
nsub,1,1,1
time,14.
outres,erase
outres,all,none
outres,nsol,all,
outres,rsol,all
outres,eangl,all
outres,etmp,all
outres,veng,all
outres,strs,all,
outres,epel,all,
outres,eppl,all,
outres,cont,all,
solve
/com,****************************************************
/com,*************** FINISHED SOLVE FOR LS 14 *************
/com,****************************************************
/com,******************* SOLVE FOR LS 15 OF 100 ****************
/nopr
/gopr
nsub,1,1,1
time,15.
outres,erase
outres,all,none
outres,nsol,all,
outres,rsol,all
outres,eangl,all
outres,etmp,all
outres,veng,all
outres,strs,all,
outres,epel,all,
outres,eppl,all,
outres,cont,all,
solve
/com,****************************************************
/com,*************** FINISHED SOLVE FOR LS 15 *************
/com,****************************************************
/com,******************* SOLVE FOR LS 16 OF 100 ****************
/nopr
/gopr
nsub,1,1,1
time,16.
outres,erase
outres,all,none
outres,nsol,all,
outres,rsol,all
outres,eangl,all
outres,etmp,all
outres,veng,all
outres,strs,all,
outres,epel,all,
outres,eppl,all,
outres,cont,all,
solve
/com,****************************************************
/com,*************** FINISHED SOLVE FOR LS 16 *************
/com,****************************************************
/com,******************* SOLVE FOR LS 17 OF 100 ****************
/nopr
/gopr
nsub,1,1,1
time,17.
outres,erase
outres,all,none
outres,nsol,all,
outres,rsol,all
outres,eangl,all
outres,etmp,all
outres,veng,all
outres,strs,all,
outres,epel,all,
outres,eppl,all,
outres,cont,all,
solve
/com,****************************************************
/com,*************** FINISHED SOLVE FOR LS 17 *************
/com,****************************************************
/com,******************* SOLVE FOR LS 18 OF 100 ****************
/nopr
/gopr
nsub,1,1,1
time,18.
outres,erase
outres,all,none
outres,nsol,all,
outres,rsol,all
outres,eangl,all
outres,etmp,all
outres,veng,all
outres,strs,all,
outres,epel,all,
outres,eppl,all,
outres,cont,all,
solve
/com,****************************************************
/com,*************** FINISHED SOLVE FOR LS 18 *************
/com,****************************************************
/com,******************* SOLVE FOR LS 19 OF 100 ****************
/nopr
/gopr
nsub,1,1,1
time,19.
outres,erase
outres,all,none
outres,nsol,all,
outres,rsol,all
outres,eangl,all
outres,etmp,all
outres,veng,all
outres,strs,all,
outres,epel,all,
outres,eppl,all,
outres,cont,all,
solve
/com,****************************************************
/com,*************** FINISHED SOLVE FOR LS 19 *************
/com,****************************************************
/com,******************* SOLVE FOR LS 20 OF 100 ****************
/nopr
/gopr
nsub,1,1,1
time,20.
outres,erase
outres,all,none
outres,nsol,all,
outres,rsol,all
outres,eangl,all
outres,etmp,all
outres,veng,all
outres,strs,all,
outres,epel,all,
outres,eppl,all,
outres,cont,all,
solve
/com,****************************************************
/com,*************** FINISHED SOLVE FOR LS 20 *************
/com,****************************************************
/com,******************* SOLVE FOR LS 21 OF 100 ****************
/nopr
/gopr
nsub,1,1,1
time,21.
outres,erase
outres,all,none
outres,nsol,all,
outres,rsol,all
outres,eangl,all
outres,etmp,all
outres,veng,all
outres,strs,all,
outres,epel,all,
outres,eppl,all,
outres,cont,all,
solve
/com,****************************************************
/com,*************** FINISHED SOLVE FOR LS 21 *************
/com,****************************************************
/com,******************* SOLVE FOR LS 22 OF 100 ****************
/nopr
/gopr
nsub,1,1,1
time,22.
outres,erase
outres,all,none
outres,nsol,all,
outres,rsol,all
outres,eangl,all
outres,etmp,all
outres,veng,all
outres,strs,all,
outres,epel,all,
outres,eppl,all,
outres,cont,all,
solve
/com,****************************************************
/com,*************** FINISHED SOLVE FOR LS 22 *************
/com,****************************************************
/com,******************* SOLVE FOR LS 23 OF 100 ****************
/nopr
/gopr
nsub,1,1,1
time,23.
outres,erase
outres,all,none
outres,nsol,all,
outres,rsol,all
outres,eangl,all
outres,etmp,all
outres,veng,all
outres,strs,all,
outres,epel,all,
outres,eppl,all,
outres,cont,all,
solve
/com,****************************************************
/com,*************** FINISHED SOLVE FOR LS 23 *************
/com,****************************************************
/com,******************* SOLVE FOR LS 24 OF 100 ****************
/nopr
/gopr
nsub,1,1,1
time,24.
outres,erase
outres,all,none
outres,nsol,all,
outres,rsol,all
outres,eangl,all
outres,etmp,all
outres,veng,all
outres,strs,all,
outres,epel,all,
outres,eppl,all,
outres,cont,all,
solve
/com,****************************************************
/com,*************** FINISHED SOLVE FOR LS 24 *************
/com,****************************************************
/com,******************* SOLVE FOR LS 25 OF 100 ****************
/nopr
/gopr
nsub,1,1,1
time,25.
outres,erase
outres,all,none
outres,nsol,all,
outres,rsol,all
outres,eangl,all
outres,etmp,all
outres,veng,all
outres,strs,all,
outres,epel,all,
outres,eppl,all,
outres,cont,all,
solve
/com,****************************************************
/com,*************** FINISHED SOLVE FOR LS 25 *************
/com,****************************************************
/com,******************* SOLVE FOR LS 26 OF 100 ****************
/nopr
/gopr
nsub,1,1,1
time,26.
outres,erase
outres,all,none
outres,nsol,all,
outres,rsol,all
outres,eangl,all
outres,etmp,all
outres,veng,all
outres,strs,all,
outres,epel,all,
outres,eppl,all,
outres,cont,all,
solve
/com,****************************************************
/com,*************** FINISHED SOLVE FOR LS 26 *************
/com,****************************************************
/com,******************* SOLVE FOR LS 27 OF 100 ****************
/nopr
/gopr
nsub,1,1,1
time,27.
outres,erase
outres,all,none
outres,nsol,all,
outres,rsol,all
outres,eangl,all
outres,etmp,all
outres,veng,all
outres,strs,all,
outres,epel,all,
outres,eppl,all,
outres,cont,all,
solve
/com,****************************************************
/com,*************** FINISHED SOLVE FOR LS 27 *************
/com,****************************************************
/com,******************* SOLVE FOR LS 28 OF 100 ****************
/nopr
/gopr
nsub,1,1,1
time,28.
outres,erase
outres,all,none
outres,nsol,all,
outres,rsol,all
outres,eangl,all
outres,etmp,all
outres,veng,all
outres,strs,all,
outres,epel,all,
outres,eppl,all,
outres,cont,all,
solve
/com,****************************************************
/com,*************** FINISHED SOLVE FOR LS 28 *************
/com,****************************************************
/com,******************* SOLVE FOR LS 29 OF 100 ****************
/nopr
/gopr
nsub,1,1,1
time,29.
outres,erase
outres,all,none
outres,nsol,all,
outres,rsol,all
outres,eangl,all
outres,etmp,all
outres,veng,all
outres,strs,all,
outres,epel,all,
outres,eppl,all,
outres,cont,all,
solve
/com,****************************************************
/com,*************** FINISHED SOLVE FOR LS 29 *************
/com,****************************************************
/com,******************* SOLVE FOR LS 30 OF 100 ****************
/nopr
/gopr
nsub,1,1,1
time,30.
outres,erase
outres,all,none
outres,nsol,all,
outres,rsol,all
outres,eangl,all
outres,etmp,all
outres,veng,all
outres,strs,all,
outres,epel,all,
outres,eppl,all,
outres,cont,all,
solve
/com,****************************************************
/com,*************** FINISHED SOLVE FOR LS 30 *************
/com,****************************************************
/com,******************* SOLVE FOR LS 31 OF 100 ****************
/nopr
/gopr
nsub,1,1,1
time,31.
outres,erase
outres,all,none
outres,nsol,all,
outres,rsol,all
outres,eangl,all
outres,etmp,all
outres,veng,all
outres,strs,all,
outres,epel,all,
outres,eppl,all,
outres,cont,all,
solve
/com,****************************************************
/com,*************** FINISHED SOLVE FOR LS 31 *************
/com,****************************************************
/com,******************* SOLVE FOR LS 32 OF 100 ****************
/nopr
/gopr
nsub,1,1,1
time,32.
outres,erase
outres,all,none
outres,nsol,all,
outres,rsol,all
outres,eangl,all
outres,etmp,all
outres,veng,all
outres,strs,all,
outres,epel,all,
outres,eppl,all,
outres,cont,all,
solve
/com,****************************************************
/com,*************** FINISHED SOLVE FOR LS 32 *************
/com,****************************************************
/com,******************* SOLVE FOR LS 33 OF 100 ****************
/nopr
/gopr
nsub,1,1,1
time,33.
outres,erase
outres,all,none
outres,nsol,all,
outres,rsol,all
outres,eangl,all
outres,etmp,all
outres,veng,all
outres,strs,all,
outres,epel,all,
outres,eppl,all,
outres,cont,all,
solve
/com,****************************************************
/com,*************** FINISHED SOLVE FOR LS 33 *************
/com,****************************************************
/com,******************* SOLVE FOR LS 34 OF 100 ****************
/nopr
/gopr
nsub,1,1,1
time,34.
outres,erase
outres,all,none
outres,nsol,all,
outres,rsol,all
outres,eangl,all
outres,etmp,all
outres,veng,all
outres,strs,all,
outres,epel,all,
outres,eppl,all,
outres,cont,all,
solve
/com,****************************************************
/com,*************** FINISHED SOLVE FOR LS 34 *************
/com,****************************************************
/com,******************* SOLVE FOR LS 35 OF 100 ****************
/nopr
/gopr
nsub,1,1,1
time,35.
outres,erase
outres,all,none
outres,nsol,all,
outres,rsol,all
outres,eangl,all
outres,etmp,all
outres,veng,all
outres,strs,all,
outres,epel,all,
outres,eppl,all,
outres,cont,all,
solve
/com,****************************************************
/com,*************** FINISHED SOLVE FOR LS 35 *************
/com,****************************************************
/com,******************* SOLVE FOR LS 36 OF 100 ****************
/nopr
/gopr
nsub,1,1,1
time,36.
outres,erase
outres,all,none
outres,nsol,all,
outres,rsol,all
outres,eangl,all
outres,etmp,all
outres,veng,all
outres,strs,all,
outres,epel,all,
outres,eppl,all,
outres,cont,all,
solve
/com,****************************************************
/com,*************** FINISHED SOLVE FOR LS 36 *************
/com,****************************************************
/com,******************* SOLVE FOR LS 37 OF 100 ****************
/nopr
/gopr
nsub,1,1,1
time,37.
outres,erase
outres,all,none
outres,nsol,all,
outres,rsol,all
outres,eangl,all
outres,etmp,all
outres,veng,all
outres,strs,all,
outres,epel,all,
outres,eppl,all,
outres,cont,all,
solve
/com,****************************************************
/com,*************** FINISHED SOLVE FOR LS 37 *************
/com,****************************************************
/com,******************* SOLVE FOR LS 38 OF 100 ****************
/nopr
/gopr
nsub,1,1,1
time,38.
outres,erase
outres,all,none
outres,nsol,all,
outres,rsol,all
outres,eangl,all
outres,etmp,all
outres,veng,all
outres,strs,all,
outres,epel,all,
outres,eppl,all,
outres,cont,all,
solve
/com,****************************************************
/com,*************** FINISHED SOLVE FOR LS 38 *************
/com,****************************************************
/com,******************* SOLVE FOR LS 39 OF 100 ****************
/nopr
/gopr
nsub,1,1,1
time,39.
outres,erase
outres,all,none
outres,nsol,all,
outres,rsol,all
outres,eangl,all
outres,etmp,all
outres,veng,all
outres,strs,all,
outres,epel,all,
outres,eppl,all,
outres,cont,all,
solve
/com,****************************************************
/com,*************** FINISHED SOLVE FOR LS 39 *************
/com,****************************************************
/com,******************* SOLVE FOR LS 40 OF 100 ****************
/nopr
/gopr
nsub,1,1,1
time,40.
outres,erase
outres,all,none
outres,nsol,all,
outres,rsol,all
outres,eangl,all
outres,etmp,all
outres,veng,all
outres,strs,all,
outres,epel,all,
outres,eppl,all,
outres,cont,all,
solve
/com,****************************************************
/com,*************** FINISHED SOLVE FOR LS 40 *************
/com,****************************************************
/com,******************* SOLVE FOR LS 41 OF 100 ****************
/nopr
/gopr
nsub,1,1,1
time,41.
outres,erase
outres,all,none
outres,nsol,all,
outres,rsol,all
outres,eangl,all
outres,etmp,all
outres,veng,all
outres,strs,all,
outres,epel,all,
outres,eppl,all,
outres,cont,all,
solve
/com,****************************************************
/com,*************** FINISHED SOLVE FOR LS 41 *************
/com,****************************************************
/com,******************* SOLVE FOR LS 42 OF 100 ****************
/nopr
/gopr
nsub,1,1,1
time,42.
outres,erase
outres,all,none
outres,nsol,all,
outres,rsol,all
outres,eangl,all
outres,etmp,all
outres,veng,all
outres,strs,all,
outres,epel,all,
outres,eppl,all,
outres,cont,all,
solve
/com,****************************************************
/com,*************** FINISHED SOLVE FOR LS 42 *************
/com,****************************************************
/com,******************* SOLVE FOR LS 43 OF 100 ****************
/nopr
/gopr
nsub,1,1,1
time,43.
outres,erase
outres,all,none
outres,nsol,all,
outres,rsol,all
outres,eangl,all
outres,etmp,all
outres,veng,all
outres,strs,all,
outres,epel,all,
outres,eppl,all,
outres,cont,all,
solve
/com,****************************************************
/com,*************** FINISHED SOLVE FOR LS 43 *************
/com,****************************************************
/com,******************* SOLVE FOR LS 44 OF 100 ****************
/nopr
/gopr
nsub,1,1,1
time,44.
outres,erase
outres,all,none
outres,nsol,all,
outres,rsol,all
outres,eangl,all
outres,etmp,all
outres,veng,all
outres,strs,all,
outres,epel,all,
outres,eppl,all,
outres,cont,all,
solve
/com,****************************************************
/com,*************** FINISHED SOLVE FOR LS 44 *************
/com,****************************************************
/com,******************* SOLVE FOR LS 45 OF 100 ****************
/nopr
/gopr
nsub,1,1,1
time,45.
outres,erase
outres,all,none
outres,nsol,all,
outres,rsol,all
outres,eangl,all
outres,etmp,all
outres,veng,all
outres,strs,all,
outres,epel,all,
outres,eppl,all,
outres,cont,all,
solve
/com,****************************************************
/com,*************** FINISHED SOLVE FOR LS 45 *************
/com,****************************************************
/com,******************* SOLVE FOR LS 46 OF 100 ****************
/nopr
/gopr
nsub,1,1,1
time,46.
outres,erase
outres,all,none
outres,nsol,all,
outres,rsol,all
outres,eangl,all
outres,etmp,all
outres,veng,all
outres,strs,all,
outres,epel,all,
outres,eppl,all,
outres,cont,all,
solve
/com,****************************************************
/com,*************** FINISHED SOLVE FOR LS 46 *************
/com,****************************************************
/com,******************* SOLVE FOR LS 47 OF 100 ****************
/nopr
/gopr
nsub,1,1,1
time,47.
outres,erase
outres,all,none
outres,nsol,all,
outres,rsol,all
outres,eangl,all
outres,etmp,all
outres,veng,all
outres,strs,all,
outres,epel,all,
outres,eppl,all,
outres,cont,all,
solve
/com,****************************************************
/com,*************** FINISHED SOLVE FOR LS 47 *************
/com,****************************************************
/com,******************* SOLVE FOR LS 48 OF 100 ****************
/nopr
/gopr
nsub,1,1,1
time,48.
outres,erase
outres,all,none
outres,nsol,all,
outres,rsol,all
outres,eangl,all
outres,etmp,all
outres,veng,all
outres,strs,all,
outres,epel,all,
outres,eppl,all,
outres,cont,all,
solve
/com,****************************************************
/com,*************** FINISHED SOLVE FOR LS 48 *************
/com,****************************************************
/com,******************* SOLVE FOR LS 49 OF 100 ****************
/nopr
/gopr
nsub,1,1,1
time,49.
outres,erase
outres,all,none
outres,nsol,all,
outres,rsol,all
outres,eangl,all
outres,etmp,all
outres,veng,all
outres,strs,all,
outres,epel,all,
outres,eppl,all,
outres,cont,all,
solve
/com,****************************************************
/com,*************** FINISHED SOLVE FOR LS 49 *************
/com,****************************************************
/com,******************* SOLVE FOR LS 50 OF 100 ****************
/nopr
/gopr
nsub,1,1,1
time,50.
outres,erase
outres,all,none
outres,nsol,all,
outres,rsol,all
outres,eangl,all
outres,etmp,all
outres,veng,all
outres,strs,all,
outres,epel,all,
outres,eppl,all,
outres,cont,all,
solve
/com,****************************************************
/com,*************** FINISHED SOLVE FOR LS 50 *************
/com,****************************************************
/com,******************* SOLVE FOR LS 51 OF 100 ****************
/nopr
/gopr
nsub,1,1,1
time,51.
outres,erase
outres,all,none
outres,nsol,all,
outres,rsol,all
outres,eangl,all
outres,etmp,all
outres,veng,all
outres,strs,all,
outres,epel,all,
outres,eppl,all,
outres,cont,all,
solve
/com,****************************************************
/com,*************** FINISHED SOLVE FOR LS 51 *************
/com,****************************************************
/com,******************* SOLVE FOR LS 52 OF 100 ****************
/nopr
/gopr
nsub,1,1,1
time,52.
outres,erase
outres,all,none
outres,nsol,all,
outres,rsol,all
outres,eangl,all
outres,etmp,all
outres,veng,all
outres,strs,all,
outres,epel,all,
outres,eppl,all,
outres,cont,all,
solve
/com,****************************************************
/com,*************** FINISHED SOLVE FOR LS 52 *************
/com,****************************************************
/com,******************* SOLVE FOR LS 53 OF 100 ****************
/nopr
/gopr
nsub,1,1,1
time,53.
outres,erase
outres,all,none
outres,nsol,all,
outres,rsol,all
outres,eangl,all
outres,etmp,all
outres,veng,all
outres,strs,all,
outres,epel,all,
outres,eppl,all,
outres,cont,all,
solve
/com,****************************************************
/com,*************** FINISHED SOLVE FOR LS 53 *************
/com,****************************************************
/com,******************* SOLVE FOR LS 54 OF 100 ****************
/nopr
/gopr
nsub,1,1,1
time,54.
outres,erase
outres,all,none
outres,nsol,all,
outres,rsol,all
outres,eangl,all
outres,etmp,all
outres,veng,all
outres,strs,all,
outres,epel,all,
outres,eppl,all,
outres,cont,all,
solve
/com,****************************************************
/com,*************** FINISHED SOLVE FOR LS 54 *************
/com,****************************************************
/com,******************* SOLVE FOR LS 55 OF 100 ****************
/nopr
/gopr
nsub,1,1,1
time,55.
outres,erase
outres,all,none
outres,nsol,all,
outres,rsol,all
outres,eangl,all
outres,etmp,all
outres,veng,all
outres,strs,all,
outres,epel,all,
outres,eppl,all,
outres,cont,all,
solve
/com,****************************************************
/com,*************** FINISHED SOLVE FOR LS 55 *************
/com,****************************************************
/com,******************* SOLVE FOR LS 56 OF 100 ****************
/nopr
/gopr
nsub,1,1,1
time,56.
outres,erase
outres,all,none
outres,nsol,all,
outres,rsol,all
outres,eangl,all
outres,etmp,all
outres,veng,all
outres,strs,all,
outres,epel,all,
outres,eppl,all,
outres,cont,all,
solve
/com,****************************************************
/com,*************** FINISHED SOLVE FOR LS 56 *************
/com,****************************************************
/com,******************* SOLVE FOR LS 57 OF 100 ****************
/nopr
/gopr
nsub,1,1,1
time,57.
outres,erase
outres,all,none
outres,nsol,all,
outres,rsol,all
outres,eangl,all
outres,etmp,all
outres,veng,all
outres,strs,all,
outres,epel,all,
outres,eppl,all,
outres,cont,all,
solve
/com,****************************************************
/com,*************** FINISHED SOLVE FOR LS 57 *************
/com,****************************************************
/com,******************* SOLVE FOR LS 58 OF 100 ****************
/nopr
/gopr
nsub,1,1,1
time,58.
outres,erase
outres,all,none
outres,nsol,all,
outres,rsol,all
outres,eangl,all
outres,etmp,all
outres,veng,all
outres,strs,all,
outres,epel,all,
outres,eppl,all,
outres,cont,all,
solve
/com,****************************************************
/com,*************** FINISHED SOLVE FOR LS 58 *************
/com,****************************************************
/com,******************* SOLVE FOR LS 59 OF 100 ****************
/nopr
/gopr
nsub,1,1,1
time,59.
outres,erase
outres,all,none
outres,nsol,all,
outres,rsol,all
outres,eangl,all
outres,etmp,all
outres,veng,all
outres,strs,all,
outres,epel,all,
outres,eppl,all,
outres,cont,all,
solve
/com,****************************************************
/com,*************** FINISHED SOLVE FOR LS 59 *************
/com,****************************************************
/com,******************* SOLVE FOR LS 60 OF 100 ****************
/nopr
/gopr
nsub,1,1,1
time,60.
outres,erase
outres,all,none
outres,nsol,all,
outres,rsol,all
outres,eangl,all
outres,etmp,all
outres,veng,all
outres,strs,all,
outres,epel,all,
outres,eppl,all,
outres,cont,all,
solve
/com,****************************************************
/com,*************** FINISHED SOLVE FOR LS 60 *************
/com,****************************************************
/com,******************* SOLVE FOR LS 61 OF 100 ****************
/nopr
/gopr
nsub,1,1,1
time,61.
outres,erase
outres,all,none
outres,nsol,all,
outres,rsol,all
outres,eangl,all
outres,etmp,all
outres,veng,all
outres,strs,all,
outres,epel,all,
outres,eppl,all,
outres,cont,all,
solve
/com,****************************************************
/com,*************** FINISHED SOLVE FOR LS 61 *************
/com,****************************************************
/com,******************* SOLVE FOR LS 62 OF 100 ****************
/nopr
/gopr
nsub,1,1,1
time,62.
outres,erase
outres,all,none
outres,nsol,all,
outres,rsol,all
outres,eangl,all
outres,etmp,all
outres,veng,all
outres,strs,all,
outres,epel,all,
outres,eppl,all,
outres,cont,all,
solve
/com,****************************************************
/com,*************** FINISHED SOLVE FOR LS 62 *************
/com,****************************************************
/com,******************* SOLVE FOR LS 63 OF 100 ****************
/nopr
/gopr
nsub,1,1,1
time,63.
outres,erase
outres,all,none
outres,nsol,all,
outres,rsol,all
outres,eangl,all
outres,etmp,all
outres,veng,all
outres,strs,all,
outres,epel,all,
outres,eppl,all,
outres,cont,all,
solve
/com,****************************************************
/com,*************** FINISHED SOLVE FOR LS 63 *************
/com,****************************************************
/com,******************* SOLVE FOR LS 64 OF 100 ****************
/nopr
/gopr
nsub,1,1,1
time,64.
outres,erase
outres,all,none
outres,nsol,all,
outres,rsol,all
outres,eangl,all
outres,etmp,all
outres,veng,all
outres,strs,all,
outres,epel,all,
outres,eppl,all,
outres,cont,all,
solve
/com,****************************************************
/com,*************** FINISHED SOLVE FOR LS 64 *************
/com,****************************************************
/com,******************* SOLVE FOR LS 65 OF 100 ****************
/nopr
/gopr
nsub,1,1,1
time,65.
outres,erase
outres,all,none
outres,nsol,all,
outres,rsol,all
outres,eangl,all
outres,etmp,all
outres,veng,all
outres,strs,all,
outres,epel,all,
outres,eppl,all,
outres,cont,all,
solve
/com,****************************************************
/com,*************** FINISHED SOLVE FOR LS 65 *************
/com,****************************************************
/com,******************* SOLVE FOR LS 66 OF 100 ****************
/nopr
/gopr
nsub,1,1,1
time,66.
outres,erase
outres,all,none
outres,nsol,all,
outres,rsol,all
outres,eangl,all
outres,etmp,all
outres,veng,all
outres,strs,all,
outres,epel,all,
outres,eppl,all,
outres,cont,all,
solve
/com,****************************************************
/com,*************** FINISHED SOLVE FOR LS 66 *************
/com,****************************************************
/com,******************* SOLVE FOR LS 67 OF 100 ****************
/nopr
/gopr
nsub,1,1,1
time,67.
outres,erase
outres,all,none
outres,nsol,all,
outres,rsol,all
outres,eangl,all
outres,etmp,all
outres,veng,all
outres,strs,all,
outres,epel,all,
outres,eppl,all,
outres,cont,all,
solve
/com,****************************************************
/com,*************** FINISHED SOLVE FOR LS 67 *************
/com,****************************************************
/com,******************* SOLVE FOR LS 68 OF 100 ****************
/nopr
/gopr
nsub,1,1,1
time,68.
outres,erase
outres,all,none
outres,nsol,all,
outres,rsol,all
outres,eangl,all
outres,etmp,all
outres,veng,all
outres,strs,all,
outres,epel,all,
outres,eppl,all,
outres,cont,all,
solve
/com,****************************************************
/com,*************** FINISHED SOLVE FOR LS 68 *************
/com,****************************************************
/com,******************* SOLVE FOR LS 69 OF 100 ****************
/nopr
/gopr
nsub,1,1,1
time,69.
outres,erase
outres,all,none
outres,nsol,all,
outres,rsol,all
outres,eangl,all
outres,etmp,all
outres,veng,all
outres,strs,all,
outres,epel,all,
outres,eppl,all,
outres,cont,all,
solve
/com,****************************************************
/com,*************** FINISHED SOLVE FOR LS 69 *************
/com,****************************************************
/com,******************* SOLVE FOR LS 70 OF 100 ****************
/nopr
/gopr
nsub,1,1,1
time,70.
outres,erase
outres,all,none
outres,nsol,all,
outres,rsol,all
outres,eangl,all
outres,etmp,all
outres,veng,all
outres,strs,all,
outres,epel,all,
outres,eppl,all,
outres,cont,all,
solve
/com,****************************************************
/com,*************** FINISHED SOLVE FOR LS 70 *************
/com,****************************************************
/com,******************* SOLVE FOR LS 71 OF 100 ****************
/nopr
/gopr
nsub,1,1,1
time,71.
outres,erase
outres,all,none
outres,nsol,all,
outres,rsol,all
outres,eangl,all
outres,etmp,all
outres,veng,all
outres,strs,all,
outres,epel,all,
outres,eppl,all,
outres,cont,all,
solve
/com,****************************************************
/com,*************** FINISHED SOLVE FOR LS 71 *************
/com,****************************************************
/com,******************* SOLVE FOR LS 72 OF 100 ****************
/nopr
/gopr
nsub,1,1,1
time,72.
outres,erase
outres,all,none
outres,nsol,all,
outres,rsol,all
outres,eangl,all
outres,etmp,all
outres,veng,all
outres,strs,all,
outres,epel,all,
outres,eppl,all,
outres,cont,all,
solve
/com,****************************************************
/com,*************** FINISHED SOLVE FOR LS 72 *************
/com,****************************************************
/com,******************* SOLVE FOR LS 73 OF 100 ****************
/nopr
/gopr
nsub,1,1,1
time,73.
outres,erase
outres,all,none
outres,nsol,all,
outres,rsol,all
outres,eangl,all
outres,etmp,all
outres,veng,all
outres,strs,all,
outres,epel,all,
outres,eppl,all,
outres,cont,all,
solve
/com,****************************************************
/com,*************** FINISHED SOLVE FOR LS 73 *************
/com,****************************************************
/com,******************* SOLVE FOR LS 74 OF 100 ****************
/nopr
/gopr
nsub,1,1,1
time,74.
outres,erase
outres,all,none
outres,nsol,all,
outres,rsol,all
outres,eangl,all
outres,etmp,all
outres,veng,all
outres,strs,all,
outres,epel,all,
outres,eppl,all,
outres,cont,all,
solve
/com,****************************************************
/com,*************** FINISHED SOLVE FOR LS 74 *************
/com,****************************************************
/com,******************* SOLVE FOR LS 75 OF 100 ****************
/nopr
/gopr
nsub,1,1,1
time,75.
outres,erase
outres,all,none
outres,nsol,all,
outres,rsol,all
outres,eangl,all
outres,etmp,all
outres,veng,all
outres,strs,all,
outres,epel,all,
outres,eppl,all,
outres,cont,all,
solve
/com,****************************************************
/com,*************** FINISHED SOLVE FOR LS 75 *************
/com,****************************************************
/com,******************* SOLVE FOR LS 76 OF 100 ****************
/nopr
/gopr
nsub,1,1,1
time,76.
outres,erase
outres,all,none
outres,nsol,all,
outres,rsol,all
outres,eangl,all
outres,etmp,all
outres,veng,all
outres,strs,all,
outres,epel,all,
outres,eppl,all,
outres,cont,all,
solve
/com,****************************************************
/com,*************** FINISHED SOLVE FOR LS 76 *************
/com,****************************************************
/com,******************* SOLVE FOR LS 77 OF 100 ****************
/nopr
/gopr
nsub,1,1,1
time,77.
outres,erase
outres,all,none
outres,nsol,all,
outres,rsol,all
outres,eangl,all
outres,etmp,all
outres,veng,all
outres,strs,all,
outres,epel,all,
outres,eppl,all,
outres,cont,all,
solve
/com,****************************************************
/com,*************** FINISHED SOLVE FOR LS 77 *************
/com,****************************************************
/com,******************* SOLVE FOR LS 78 OF 100 ****************
/nopr
/gopr
nsub,1,1,1
time,78.
outres,erase
outres,all,none
outres,nsol,all,
outres,rsol,all
outres,eangl,all
outres,etmp,all
outres,veng,all
outres,strs,all,
outres,epel,all,
outres,eppl,all,
outres,cont,all,
solve
/com,****************************************************
/com,*************** FINISHED SOLVE FOR LS 78 *************
/com,****************************************************
/com,******************* SOLVE FOR LS 79 OF 100 ****************
/nopr
/gopr
nsub,1,1,1
time,79.
outres,erase
outres,all,none
outres,nsol,all,
outres,rsol,all
outres,eangl,all
outres,etmp,all
outres,veng,all
outres,strs,all,
outres,epel,all,
outres,eppl,all,
outres,cont,all,
solve
/com,****************************************************
/com,*************** FINISHED SOLVE FOR LS 79 *************
/com,****************************************************
/com,******************* SOLVE FOR LS 80 OF 100 ****************
/nopr
/gopr
nsub,1,1,1
time,80.
outres,erase
outres,all,none
outres,nsol,all,
outres,rsol,all
outres,eangl,all
outres,etmp,all
outres,veng,all
outres,strs,all,
outres,epel,all,
outres,eppl,all,
outres,cont,all,
solve
/com,****************************************************
/com,*************** FINISHED SOLVE FOR LS 80 *************
/com,****************************************************
/com,******************* SOLVE FOR LS 81 OF 100 ****************
/nopr
/gopr
nsub,1,1,1
time,81.
outres,erase
outres,all,none
outres,nsol,all,
outres,rsol,all
outres,eangl,all
outres,etmp,all
outres,veng,all
outres,strs,all,
outres,epel,all,
outres,eppl,all,
outres,cont,all,
solve
/com,****************************************************
/com,*************** FINISHED SOLVE FOR LS 81 *************
/com,****************************************************
/com,******************* SOLVE FOR LS 82 OF 100 ****************
/nopr
/gopr
nsub,1,1,1
time,82.
outres,erase
outres,all,none
outres,nsol,all,
outres,rsol,all
outres,eangl,all
outres,etmp,all
outres,veng,all
outres,strs,all,
outres,epel,all,
outres,eppl,all,
outres,cont,all,
solve
/com,****************************************************
/com,*************** FINISHED SOLVE FOR LS 82 *************
/com,****************************************************
/com,******************* SOLVE FOR LS 83 OF 100 ****************
/nopr
/gopr
nsub,1,1,1
time,83.
outres,erase
outres,all,none
outres,nsol,all,
outres,rsol,all
outres,eangl,all
outres,etmp,all
outres,veng,all
outres,strs,all,
outres,epel,all,
outres,eppl,all,
outres,cont,all,
solve
/com,****************************************************
/com,*************** FINISHED SOLVE FOR LS 83 *************
/com,****************************************************
/com,******************* SOLVE FOR LS 84 OF 100 ****************
/nopr
/gopr
nsub,1,1,1
time,84.
outres,erase
outres,all,none
outres,nsol,all,
outres,rsol,all
outres,eangl,all
outres,etmp,all
outres,veng,all
outres,strs,all,
outres,epel,all,
outres,eppl,all,
outres,cont,all,
solve
/com,****************************************************
/com,*************** FINISHED SOLVE FOR LS 84 *************
/com,****************************************************
/com,******************* SOLVE FOR LS 85 OF 100 ****************
/nopr
/gopr
nsub,1,1,1
time,85.
outres,erase
outres,all,none
outres,nsol,all,
outres,rsol,all
outres,eangl,all
outres,etmp,all
outres,veng,all
outres,strs,all,
outres,epel,all,
outres,eppl,all,
outres,cont,all,
solve
/com,****************************************************
/com,*************** FINISHED SOLVE FOR LS 85 *************
/com,****************************************************
/com,******************* SOLVE FOR LS 86 OF 100 ****************
/nopr
/gopr
nsub,1,1,1
time,86.
outres,erase
outres,all,none
outres,nsol,all,
outres,rsol,all
outres,eangl,all
outres,etmp,all
outres,veng,all
outres,strs,all,
outres,epel,all,
outres,eppl,all,
outres,cont,all,
solve
/com,****************************************************
/com,*************** FINISHED SOLVE FOR LS 86 *************
/com,****************************************************
/com,******************* SOLVE FOR LS 87 OF 100 ****************
/nopr
/gopr
nsub,1,1,1
time,87.
outres,erase
outres,all,none
outres,nsol,all,
outres,rsol,all
outres,eangl,all
outres,etmp,all
outres,veng,all
outres,strs,all,
outres,epel,all,
outres,eppl,all,
outres,cont,all,
solve
/com,****************************************************
/com,*************** FINISHED SOLVE FOR LS 87 *************
/com,****************************************************
/com,******************* SOLVE FOR LS 88 OF 100 ****************
/nopr
/gopr
nsub,1,1,1
time,88.
outres,erase
outres,all,none
outres,nsol,all,
outres,rsol,all
outres,eangl,all
outres,etmp,all
outres,veng,all
outres,strs,all,
outres,epel,all,
outres,eppl,all,
outres,cont,all,
solve
/com,****************************************************
/com,*************** FINISHED SOLVE FOR LS 88 *************
/com,****************************************************
/com,******************* SOLVE FOR LS 89 OF 100 ****************
/nopr
/gopr
nsub,1,1,1
time,89.
outres,erase
outres,all,none
outres,nsol,all,
outres,rsol,all
outres,eangl,all
outres,etmp,all
outres,veng,all
outres,strs,all,
outres,epel,all,
outres,eppl,all,
outres,cont,all,
solve
/com,****************************************************
/com,*************** FINISHED SOLVE FOR LS 89 *************
/com,****************************************************
/com,******************* SOLVE FOR LS 90 OF 100 ****************
/nopr
/gopr
nsub,1,1,1
time,90.
outres,erase
outres,all,none
outres,nsol,all,
outres,rsol,all
outres,eangl,all
outres,etmp,all
outres,veng,all
outres,strs,all,
outres,epel,all,
outres,eppl,all,
outres,cont,all,
solve
/com,****************************************************
/com,*************** FINISHED SOLVE FOR LS 90 *************
/com,****************************************************
/com,******************* SOLVE FOR LS 91 OF 100 ****************
/nopr
/gopr
nsub,1,1,1
time,91.
outres,erase
outres,all,none
outres,nsol,all,
outres,rsol,all
outres,eangl,all
outres,etmp,all
outres,veng,all
outres,strs,all,
outres,epel,all,
outres,eppl,all,
outres,cont,all,
solve
/com,****************************************************
/com,*************** FINISHED SOLVE FOR LS 91 *************
/com,****************************************************
/com,******************* SOLVE FOR LS 92 OF 100 ****************
/nopr
/gopr
nsub,1,1,1
time,92.
outres,erase
outres,all,none
outres,nsol,all,
outres,rsol,all
outres,eangl,all
outres,etmp,all
outres,veng,all
outres,strs,all,
outres,epel,all,
outres,eppl,all,
outres,cont,all,
solve
/com,****************************************************
/com,*************** FINISHED SOLVE FOR LS 92 *************
/com,****************************************************
/com,******************* SOLVE FOR LS 93 OF 100 ****************
/nopr
/gopr
nsub,1,1,1
time,93.
outres,erase
outres,all,none
outres,nsol,all,
outres,rsol,all
outres,eangl,all
outres,etmp,all
outres,veng,all
outres,strs,all,
outres,epel,all,
outres,eppl,all,
outres,cont,all,
solve
/com,****************************************************
/com,*************** FINISHED SOLVE FOR LS 93 *************
/com,****************************************************
/com,******************* SOLVE FOR LS 94 OF 100 ****************
/nopr
/gopr
nsub,1,1,1
time,94.
outres,erase
outres,all,none
outres,nsol,all,
outres,rsol,all
outres,eangl,all
outres,etmp,all
outres,veng,all
outres,strs,all,
outres,epel,all,
outres,eppl,all,
outres,cont,all,
solve
/com,****************************************************
/com,*************** FINISHED SOLVE FOR LS 94 *************
/com,****************************************************
/com,******************* SOLVE FOR LS 95 OF 100 ****************
/nopr
/gopr
nsub,1,1,1
time,95.
outres,erase
outres,all,none
outres,nsol,all,
outres,rsol,all
outres,eangl,all
outres,etmp,all
outres,veng,all
outres,strs,all,
outres,epel,all,
outres,eppl,all,
outres,cont,all,
solve
/com,****************************************************
/com,*************** FINISHED SOLVE FOR LS 95 *************
/com,****************************************************
/com,******************* SOLVE FOR LS 96 OF 100 ****************
/nopr
/gopr
nsub,1,1,1
time,96.
outres,erase
outres,all,none
outres,nsol,all,
outres,rsol,all
outres,eangl,all
outres,etmp,all
outres,veng,all
outres,strs,all,
outres,epel,all,
outres,eppl,all,
outres,cont,all,
solve
/com,****************************************************
/com,*************** FINISHED SOLVE FOR LS 96 *************
/com,****************************************************
/com,******************* SOLVE FOR LS 97 OF 100 ****************
/nopr
/gopr
nsub,1,1,1
time,97.
outres,erase
outres,all,none
outres,nsol,all,
outres,rsol,all
outres,eangl,all
outres,etmp,all
outres,veng,all
outres,strs,all,
outres,epel,all,
outres,eppl,all,
outres,cont,all,
solve
/com,****************************************************
/com,*************** FINISHED SOLVE FOR LS 97 *************
/com,****************************************************
/com,******************* SOLVE FOR LS 98 OF 100 ****************
/nopr
/gopr
nsub,1,1,1
time,98.
outres,erase
outres,all,none
outres,nsol,all,
outres,rsol,all
outres,eangl,all
outres,etmp,all
outres,veng,all
outres,strs,all,
outres,epel,all,
outres,eppl,all,
outres,cont,all,
solve
/com,****************************************************
/com,*************** FINISHED SOLVE FOR LS 98 *************
/com,****************************************************
/com,******************* SOLVE FOR LS 99 OF 100 ****************
/nopr
/gopr
nsub,1,1,1
time,99.
outres,erase
outres,all,none
outres,nsol,all,
outres,rsol,all
outres,eangl,all
outres,etmp,all
outres,veng,all
outres,strs,all,
outres,epel,all,
outres,eppl,all,
outres,cont,all,
solve
/com,****************************************************
/com,*************** FINISHED SOLVE FOR LS 99 *************
/com,****************************************************
/com,******************* SOLVE FOR LS 100 OF 100 ****************
/nopr
/gopr
nsub,1,1,1
time,100.
outres,erase
outres,all,none
outres,nsol,all,
outres,rsol,all
outres,eangl,all
outres,etmp,all
outres,veng,all
outres,strs,all,
outres,epel,all,
outres,eppl,all,
outres,cont,all,
solve
/com,****************************************************
/com,*************** FINISHED SOLVE FOR LS 100 *************
*get,_wallasol,active,,time,wall
/nopr
*get,_numnode,node,0,count
*get,_numelem,elem,0,count
*get, _MAXELEMNUM, elem, 0, NUM, MAX
*get, _MAXNODENUM, node, 0, NUM, MAX,,,INTERNAL
*get, _MAXELEMTYPE, etyp, 0, NUM, MAX
*get, _MAXREALCONST, rcon, 0, NUM, MAX
*get,_NSOLTHREADS,active,0,ntfs
*get,_NSOLPROCESSES,active,0,npfs
/gopr
/post1
xmlo,ENCODING,ISO-8859-1
xmlo,parm
/xml,parm,xml
fini
/gopr
*get,_walldone,active,,time,wall
_preptime=(_wallbsol-_wallstrt)*3600
_solvtime=(_wallasol-_wallbsol)*3600
_posttime=(_walldone-_wallasol)*3600
_totaltim=(_walldone-_wallstrt)*3600
*get,_dlbratio,active,0,solu,dlbr
*get,_combtime,active,0,solu,comb
*get,_ssmode,active,0,solu,ssmm
*get,_ndofs,active,0,solu,ndof
*get,_sol_end_time,active,0,set,time
*if,_sol_end_time,eq,100.000000,then
/fclean				!clean distributed files
*endif
/com,--- Total number of nodes = %_numnode%
/com,--- Total number of elements = %_numelem%
/com,--- Element load balance ratio = %_dlbratio%
/com,--- Time to combine distributed files = %_combtime%
/com,--- Sparse memory mode = %_ssmode%
/com,--- Number of DOF = %_ndofs%
/wb,file,end               ! done with WB generated input
