/batch
/config,noeldb,1     ! force off writing results to database
*get,_wallstrt,active,,time,wall
! ANSYS input file written by Workbench version 2024 R2
! File used for geometry attach: Z:\Developer\MIT_Rkt_Team\MIT_Rkt_Aurora_Aero\MIT_Rkt_Aurora_Aero\finFEA\wspc_FEA_files\dp0\global\MECH\SYS\AssembledModel\SYS.pmdb
/title,wspc_FEA--Structure statique (C3)
! ****** Begin Custom Load Command Snippet ******
/COM, ACT Extensions:
/COM,     LSDYNA, 2024.2
/COM,     5f463412-bd3e-484b-87e7-cbc0a665e474, wbex
/COM,/COM,     ANSYSMotion, 2024.2
/COM,     20180725-3f81-49eb-9f31-41364844c769, wbex
/COM,
! ****** End   Custom Load Command Snippet ******
*DIM,_wb_ProjectScratch_dir,string,248
_wb_ProjectScratch_dir(1) = 'Z:\Developer\MIT_Rkt_Team\MIT_Rkt_Aurora_Aero\MIT_Rkt_Aurora_Aero\finFEA\_ProjectScratch\ScrE606\'
*DIM,_wb_SolverFiles_dir,string,248
_wb_SolverFiles_dir(1) = 'Z:\Developer\MIT_Rkt_Team\MIT_Rkt_Aurora_Aero\MIT_Rkt_Aurora_Aero\finFEA\wspc_FEA_files\dp0\SYS\MECH\'
*DIM,_wb_userfiles_dir,string,248
_wb_userfiles_dir(1) = 'Z:\Developer\MIT_Rkt_Team\MIT_Rkt_Aurora_Aero\MIT_Rkt_Aurora_Aero\finFEA\wspc_FEA_files\user_files\'
/com,--- Data in consistent NMM units. See Solving Units in the help system for more information.
/units,MPA
/nopr
/wb,file,start              !  signify a WB generated input file
/prep7
! Turn off shape checking because checks already performed inside WB mesher.
! See help system for more information.
SHPP,OFF,,NOWARN
/nolist
etcon,set             ! allow ANSYS to choose best KEYOP's for 180x elements, resets any applicable keyopt to MAPDL defaults
/com,*********** Nodes for the whole assembly ***********
nblock,3,,3366
(1i9,3e20.9e3)
        1     3.478679657E+02     1.000000000E+01    -2.381250000E+01
        2     3.478679657E+02     1.776400000E+02    -2.381250000E+01
        3     2.335679657E+02     1.776400000E+02    -2.381250000E+01
        4     3.798796572E+01     1.000000000E+01    -2.381250000E+01
        5     2.326053488E+02     1.747986441E+02    -2.381250000E+01
        6     2.349576471E+02     1.747986441E+02    -2.381250000E+01
        7     2.373099454E+02     1.747986441E+02    -2.381250000E+01
        8     2.396622437E+02     1.747986441E+02    -2.381250000E+01
        9     2.420145420E+02     1.747986441E+02    -2.381250000E+01
       10     2.443668403E+02     1.747986441E+02    -2.381250000E+01
       11     2.467191386E+02     1.747986441E+02    -2.381250000E+01
       12     2.490714369E+02     1.747986441E+02    -2.381250000E+01
       13     2.514237352E+02     1.747986441E+02    -2.381250000E+01
       14     2.537760335E+02     1.747986441E+02    -2.381250000E+01
       15     2.561283318E+02     1.747986441E+02    -2.381250000E+01
       16     2.584806301E+02     1.747986441E+02    -2.381250000E+01
       17     2.608329284E+02     1.747986441E+02    -2.381250000E+01
       18     2.631852267E+02     1.747986441E+02    -2.381250000E+01
       19     2.655375250E+02     1.747986441E+02    -2.381250000E+01
       20     2.678898233E+02     1.747986441E+02    -2.381250000E+01
! ... 3041 like lines cut
/wb,elem,start            !  set before creation of elements
/com,*********** Elements for Body 1 'bonding_COMPLETE\Fel_let(ACP (Pre))' ***********
et,1,181
keyo,1,1,0          ! bending and membrane stiffness
keyo,1,3,2
keyo,1,8,2          ! set Layer data storage
eblock,19,solid,,5900
(19i9)
        1        1        1        1        0        0        0        0        4        0        1        3        5     3002     3002
        1        1        1        1        0        0        0        0        4        0        2        3     2896        5        5
        1        1        1        1        0        0        0        0        4        0        3     2896       54        5        5
        1        1        1        1        0        0        0        0        4        0        4     2896     2897       54       54
        1        1        1        1        0        0        0        0        4        0        5     2897      103       54       54
        1        1        1        1        0        0        0        0        4        0        6     2897     2898      103      103
        1        1        1        1        0        0        0        0        4        0        7     2898      152      103      103
        1        1        1        1        0        0        0        0        4        0        8     2898     2899      152      152
        1        1        1        1        0        0        0        0        4        0        9     2899      201      152      152
        1        1        1        1        0        0        0        0        4        0       10     2899     2900      201      201
        1        1        1        1        0        0        0        0        4        0       11     2900      250      201      201
        1        1        1        1        0        0        0        0        4        0       12     2900     2901      250      250
        1        1        1        1        0        0        0        0        4        0       13     2901      299      250      250
        1        1        1        1        0        0        0        0        4        0       14     2901     2902      299      299
        1        1        1        1        0        0        0        0        4        0       15     2902      348      299      299
        1        1        1        1        0        0        0        0        4        0       16     2902     2903      348      348
        1        1        1        1        0        0        0        0        4        0       17     2903      397      348      348
        1        1        1        1        0        0        0        0        4        0       18     2903     2904      397      397
        1        1        1        1        0        0        0        0        4        0       19     2904      446      397      397
        1        1        1        1        0        0        0        0        4        0       20     2904     2905      446      446
! ... 5881 like lines cut
! Material Id = {3D47D1BB-2B41-4B86-B5B7-1A90780AF151}
/wb,elem,end               !  done creating elements
/com,*********** Send User Defined Coordinate System(s) ***********
local,12,0,0.,0.,0.,0.,0.,0.
local,13,0,0.,0.,0.,0.,0.,0.
csys,0
toffst,273.15,      ! Temperature offset from absolute zero
/com,*********** Set Reference Temperature ***********
tref,22.
/wb,mat,start              !  starting to send materials
/com,*********** Send Materials ***********
MP,DENS,1,1.451e-09,	! tonne mm^-3
MP,EX,1,59160,	! tonne s^-2 mm^-1
MP,EY,1,59160,	! tonne s^-2 mm^-1
MP,EZ,1,7500,	! tonne s^-2 mm^-1
MP,PRXY,1,0.04,
MP,PRYZ,1,0.3,
MP,PRXZ,1,0.3,
MP,GXY,1,3300,	! tonne s^-2 mm^-1
MP,GYZ,1,2700,	! tonne s^-2 mm^-1
MP,GXZ,1,2700,	! tonne s^-2 mm^-1

TB,FCLI,1,1,9,2
TBDATA,1,0.0092,-0.0084,0.0092,-0.0084,0.0078,-0.011
TBDATA,7,0.02,0.015
MP,ALPX,1,2.2e-06,	! C^-1
MP,ALPY,1,2.2e-06,	! C^-1
MP,ALPZ,1,1e-05,	! C^-1

TB,FCLI,1,1,20,1
TBDATA,1,513
TBDATA,2,-437
TBDATA,3,513
TBDATA,4,-437
TBDATA,5,50
TBDATA,6,-150
TBDATA,7,120
TBDATA,8,55
TBDATA,9,55
TBDATA,10,-1
TBDATA,11,-1
TBDATA,12,-1
MP,UVID,1,8640dc5c-2458-452f-9640-f956195280f7
MP,UMID,1,7ab9c060-4547-4561-aab3-d3fd3c4952ed

/wb,mat,end                !  done sending materials
/com,*********** Send Sheet Properties ***********
sectype,1,shell
secdata,3.2
secoff,mid


/com,*********** Sending Coordinate Systems for External Layered Section***********
local,14,0,234.009093404915,176.692881355932,-23.8125,-180.,0.,0.
local,15,0,70.9,3.2,-116.3,0.,0.,-90.
csys,0

/com,*********** Sending Materials for External Layered Section***********
MP,DENS,2,1.451e-09,	! tonne mm^-3
MP,EX,2,59160,	! tonne s^-2 mm^-1
MP,EY,2,59160,	! tonne s^-2 mm^-1
MP,EZ,2,7500,	! tonne s^-2 mm^-1
MP,PRXY,2,0.04,
MP,PRYZ,2,0.3,
MP,PRXZ,2,0.3,
MP,GXY,2,3300,	! tonne s^-2 mm^-1
MP,GYZ,2,2700,	! tonne s^-2 mm^-1
MP,GXZ,2,2700,	! tonne s^-2 mm^-1

TB,FCLI,2,1,9,2
TBDATA,1,0.0092,-0.0084,0.0092,-0.0084,0.0078,-0.011
TBDATA,7,0.02,0.015
MP,ALPX,2,2.2e-06,	! C^-1
MP,ALPY,2,2.2e-06,	! C^-1
MP,ALPZ,2,1e-05,	! C^-1

TB,FCLI,2,1,20,1
TBDATA,1,513
TBDATA,2,-437
TBDATA,3,513
TBDATA,4,-437
TBDATA,5,50
TBDATA,6,-150
TBDATA,7,120
TBDATA,8,55
TBDATA,9,55
TBDATA,10,-1
TBDATA,11,-1
TBDATA,12,-1
MP,UVID,2,8640dc5c-2458-452f-9640-f956195280f7
MP,UMID,2,7ab9c060-4547-4561-aab3-d3fd3c4952ed


/com,*********** Send External Layered Section Properties ***********
CMBLOCK,_CM_EXT_SEC_0,ELEM,     5900
(8i10)
         1         2         3         4         5         6         7         8
         9        10        11        12        13        14        15        16
        17        18        19        20        21        22        23        24
        25        26        27        28        29        30        31        32
        33        34        35        36        37        38        39        40
        41        42        43        44        45        46        47        48
        49        50        51        52        53        54        55        56
        57        58        59        60        61        62        63        64
        65        66        67        68        69        70        71        72
        73        74        75        76        77        78        79        80
        81        82        83        84        85        86        87        88
        89        90        91        92        93        94        95        96
        97        98        99       100       101       102       103       104
       105       106       107       108       109       110       111       112
       113       114       115       116       117       118       119       120
       121       122       123       124       125       126       127       128
       129       130       131       132       133       134       135       136
       137       138       139       140       141       142       143       144
       145       146       147       148       149       150       151       152
       153       154       155       156       157       158       159       160
! ... 718 like lines cut
sectype,3,shell
secdata,0.229,2,0
secoff,bottom
emod,_cm_ext_sec_0,secnum,3
emod,1,esys,14
emod,2,esys,14
emod,3,esys,14
emod,4,esys,14
emod,5,esys,14
emod,6,esys,14
emod,7,esys,14
emod,8,esys,14
emod,9,esys,14
emod,10,esys,14
emod,11,esys,14
emod,12,esys,14
emod,13,esys,14
emod,14,esys,14
emod,15,esys,14
emod,16,esys,14
emod,17,esys,14
emod,18,esys,14
emod,19,esys,14
emod,20,esys,14
! ... 5880 like lines cut

!************************* Model Summary ********************
!bonding_COMPLETE\Fellet(ACP (Pre)),	poxy Carbone Tiss (230 GPa) humide,	matid,	1
!************************* End Model Summary ********************
! get the diagonal of the bounding box. Needed later for other things
*get,_xmin,node,,mnloc,x
*get,_ymin,node,,mnloc,y
*get,_zmin,node,,mnloc,z
*get,_xmax,node,,mxloc,x
*get,_ymax,node,,mxloc,y
*get,_zmax,node,,mxloc,z
_ASMDIAG=(_xmax-_xmin)*(_xmax-_xmin)+(_ymax-_ymin)*(_ymax-_ymin)+(_zmax-_zmin)*(_zmax-_zmin)
_ASMDIAG=SQRT(_ASMDIAG)
/wb,contact,start          !  starting to send contact
/com,*********** Create Contact "Li_ totalement - bonding_COMPLETE\Fel_let(ACP (Pre)) Vers bonding_COMPLETE\Fel_let(ACP (Pre))" ***********
*set,_bid,5
et,_bid,188
type,_bid
real,_bid
mat,_bid
secnum,_bid
n,3153,347.8999657213,10.032,-23.7805
en,5967,3153,1
en,5968,3153,1
n,3154,38.0199657212996,10.032,-23.7805
en,5969,3154,4
en,5970,3154,4
n,3155,44.2175657212996,10.032,-23.7805
en,5971,3155,2847
en,5972,3155,2847
n,3156,50.4151657212996,10.032,-23.7805
en,5973,3156,2848
en,5974,3156,2848
n,3157,56.6127657212996,10.032,-23.7805
en,5975,3157,2849
en,5976,3157,2849
n,3158,62.8103657212996,10.032,-23.7805
en,5977,3158,2850
en,5978,3158,2850
n,3159,69.0079657212996,10.032,-23.7805
en,5979,3159,2851
en,5980,3159,2851
n,3160,75.2055657212996,10.032,-23.7805
en,5981,3160,2852
en,5982,3160,2852
n,3161,81.4031657212996,10.032,-23.7805
en,5983,3161,2853
en,5984,3161,2853
n,3162,87.6007657212996,10.032,-23.7805
en,5985,3162,2854
en,5986,3162,2854
n,3163,93.7983657212996,10.032,-23.7805
en,5987,3163,2855
en,5988,3163,2855
n,3164,99.9959657212996,10.032,-23.7805
en,5989,3164,2856
en,5990,3164,2856
n,3165,106.1935657213,10.032,-23.7805
en,5991,3165,2857
en,5992,3165,2857
n,3166,112.3911657213,10.032,-23.7805
en,5993,3166,2858
en,5994,3166,2858
n,3167,118.5887657213,10.032,-23.7805
en,5995,3167,2859
en,5996,3167,2859
n,3168,124.7863657213,10.032,-23.7805
en,5997,3168,2860
en,5998,3168,2860
n,3169,130.9839657213,10.032,-23.7805
en,5999,3169,2861
en,6000,3169,2861
n,3170,137.1815657213,10.032,-23.7805
en,6001,3170,2862
en,6002,3170,2862
n,3171,143.3791657213,10.032,-23.7805
en,6003,3171,2863
en,6004,3171,2863
n,3172,149.5767657213,10.032,-23.7805
en,6005,3172,2864
en,6006,3172,2864
! ... 93 like lines cut
MP,EX,5,18600,	! tonne s^-2 mm^-1
MP,NUXY,5,0.27,
MP,ALPX,5,5e-06,	! C^-1
MP,KXX,5,1.27,	! tonne mm s^-3 C^-1
MP,C,5,802000000,	! mm^2 s^-2 C^-1
MP,UVID,5,98042f16-75a4-4d12-98d6-cd9019099489
MP,UMID,5,b3e4d276-dfef-4ee5-a721-dd4430f961bf

sectype,_bid,beam,csolid
secdata,1.
secoffset,cent
nsel,all
esel,all
nsel,all
esel,all
/wb,contact,end            !  done creating contacts
/golist
/wb,load,start             !  starting to send loads
/com,*********** Fixed Supports ***********
CMBLOCK,_FIXEDSU,NODE,       51
(8i10)
         1         4      2847      2848      2849      2850      2851      2852
      2853      2854      2855      2856      2857      2858      2859      2860
      2861      2862      2863      2864      2865      2866      2867      2868
      2869      2870      2871      2872      2873      2874      2875      2876
      2877      2878      2879      2880      2881      2882      2883      2884
      2885      2886      2887      2888      2889      2890      2891      2892
      2893      2894      2895
cmsel,s,_FIXEDSU
d,all,all
nsel,all
/com,*********** Define Pressure Using Surface Effect Elements "Pression" ***********
et,6,154
mat,6
eblock,10,,,5900
(15i9)
     6069        6        6        6        0        3        5     3002     3002
     6070        6        6        6        0        3     2896        5        5
     6071        6        6        6        0     2896       54        5        5
     6072        6        6        6        0     2896     2897       54       54
     6073        6        6        6        0     2897      103       54       54
     6074        6        6        6        0     2897     2898      103      103
     6075        6        6        6        0     2898      152      103      103
     6076        6        6        6        0     2898     2899      152      152
     6077        6        6        6        0     2899      201      152      152
     6078        6        6        6        0     2899     2900      201      201
     6079        6        6        6        0     2900      250      201      201
     6080        6        6        6        0     2900     2901      250      250
     6081        6        6        6        0     2901      299      250      250
     6082        6        6        6        0     2901     2902      299      299
     6083        6        6        6        0     2902      348      299      299
     6084        6        6        6        0     2902     2903      348      348
     6085        6        6        6        0     2903      397      348      348
     6086        6        6        6        0     2903     2904      397      397
     6087        6        6        6        0     2904      446      397      397
     6088        6        6        6        0     2904     2905      446      446
! ... 5881 like lines cut
esel,s,type,,6
keyop,6,7,0         ! Use deformed area for application of load
esel,all

*DIM,_loadvari133,TABLE,11,1,1,TIME, , , 0
! Time values
*TAXIS,_loadvari133(1),1,0.,1.,2.,3.,4.,5.,6.,7.,8.,9.
*TAXIS,_loadvari133(11),1,10.
! Load values
_loadvari133(1,1,1) = 0.
_loadvari133(2,1,1) = 0.5619
_loadvari133(3,1,1) = 0.56191
_loadvari133(4,1,1) = 0.56192
_loadvari133(5,1,1) = 0.56193
_loadvari133(6,1,1) = 0.56194
_loadvari133(7,1,1) = 0.56195
_loadvari133(8,1,1) = 0.56196
_loadvari133(9,1,1) = 0.56197
_loadvari133(10,1,1) = 0.56198
_loadvari133(11,1,1) = 0.56199


esel,all
/gst,on,on
fini
*get,_numnode,node,0,count
*get,_numelem,elem,0,count
*get, _MAXELEMNUM, elem, 0, NUM, MAX
*get, _MAXNODENUM, node, 0, NUM, MAX
*get, _MAXELEMTYPE, etyp, 0, NUM, MAX
*get, _MAXREALCONST, rcon, 0, NUM, MAX
/go
/wb,load,end               !  done creating loads
/com,--- Number of total nodes = %_numnode%
/com,--- Number of contact elements = 5900
/com,--- Number of spring elements = 0
/com,--- Number of bearing elements = 0
/com,--- Number of solid elements = 5900
/com,--- Number of condensed parts = 0
/com,--- Number of total elements = %_numelem%
*get,_wallbsol,active,,time,wall
/com,****************************************************************************
/com,*************************    SOLUTION       ********************************
/com,****************************************************************************
/solu
antype,0                   ! static analysis
neqit,1,force              ! Force 1 eq iteration since only nonlinearity is bonded/no sep contact
pred,off
_thickRatio=  0     ! Ratio of thick parts in the model
eqsl,sparse,,,,,1
cntr,print,1               ! print out contact info and also make no initial contact an error
cncheck,dmp		!	Enable program controlled contact splitting for distributed memory parallel run
dmpoption,emat,no             ! Don't combine emat file for DANSYS
dmpoption,esav,no             ! Don't combine esav file for DANSYS
nldiag,cont,iter           ! print out contact info each equilibrium iteration
rescontrol,,none                 ! Do not keep any restart files
/com,****************************************************
/com,******************* SOLVE FOR LS 1 OF 10 ****************
esel,s,type,,6
nsle
sf,all,pres,%_loadvari133%
nsel,all
esel,all
esel,all
/nopr
/gopr
nsub,1,1,1
time,1.
outres,erase
outres,all,none
outres,nsol,all,
outres,rsol,all
outres,eangl,all
outres,etmp,all
outres,veng,all
outres,strs,all,
outres,epel,all,
outres,eppl,all,
outres,cont,all,
! *********** WB SOLVE COMMAND ***********
! check interactive state
*get,ANSINTER_,active,,int
*if,ANSINTER_,ne,0,then
/eof
*endif
solve
/com *************** Write FE CONNECTORS ********* 
CEWRITE,file,ce,,INTE
/com,****************************************************
/com,*************** FINISHED SOLVE FOR LS 1 *************
/com,****************************************************
/com,******************* SOLVE FOR LS 2 OF 10 ****************
esel,all
/nopr
/gopr
nsub,1,1,1
time,2.
outres,erase
outres,all,none
outres,nsol,all,
outres,rsol,all
outres,eangl,all
outres,etmp,all
outres,veng,all
outres,strs,all,
outres,epel,all,
outres,eppl,all,
outres,cont,all,
solve
/com,****************************************************
/com,*************** FINISHED SOLVE FOR LS 2 *************
/com,****************************************************
/com,******************* SOLVE FOR LS 3 OF 10 ****************
esel,all
/nopr
/gopr
nsub,1,1,1
time,3.
outres,erase
outres,all,none
outres,nsol,all,
outres,rsol,all
outres,eangl,all
outres,etmp,all
outres,veng,all
outres,strs,all,
outres,epel,all,
outres,eppl,all,
outres,cont,all,
solve
/com,****************************************************
/com,*************** FINISHED SOLVE FOR LS 3 *************
/com,****************************************************
/com,******************* SOLVE FOR LS 4 OF 10 ****************
esel,all
/nopr
/gopr
nsub,1,1,1
time,4.
outres,erase
outres,all,none
outres,nsol,all,
outres,rsol,all
outres,eangl,all
outres,etmp,all
outres,veng,all
outres,strs,all,
outres,epel,all,
outres,eppl,all,
outres,cont,all,
solve
/com,****************************************************
/com,*************** FINISHED SOLVE FOR LS 4 *************
/com,****************************************************
/com,******************* SOLVE FOR LS 5 OF 10 ****************
esel,all
/nopr
/gopr
nsub,1,1,1
time,5.
outres,erase
outres,all,none
outres,nsol,all,
outres,rsol,all
outres,eangl,all
outres,etmp,all
outres,veng,all
outres,strs,all,
outres,epel,all,
outres,eppl,all,
outres,cont,all,
solve
/com,****************************************************
/com,*************** FINISHED SOLVE FOR LS 5 *************
/com,****************************************************
/com,******************* SOLVE FOR LS 6 OF 10 ****************
esel,all
/nopr
/gopr
nsub,1,1,1
time,6.
outres,erase
outres,all,none
outres,nsol,all,
outres,rsol,all
outres,eangl,all
outres,etmp,all
outres,veng,all
outres,strs,all,
outres,epel,all,
outres,eppl,all,
outres,cont,all,
solve
/com,****************************************************
/com,*************** FINISHED SOLVE FOR LS 6 *************
/com,****************************************************
/com,******************* SOLVE FOR LS 7 OF 10 ****************
esel,all
/nopr
/gopr
nsub,1,1,1
time,7.
outres,erase
outres,all,none
outres,nsol,all,
outres,rsol,all
outres,eangl,all
outres,etmp,all
outres,veng,all
outres,strs,all,
outres,epel,all,
outres,eppl,all,
outres,cont,all,
solve
/com,****************************************************
/com,*************** FINISHED SOLVE FOR LS 7 *************
/com,****************************************************
/com,******************* SOLVE FOR LS 8 OF 10 ****************
esel,all
/nopr
/gopr
nsub,1,1,1
time,8.
outres,erase
outres,all,none
outres,nsol,all,
outres,rsol,all
outres,eangl,all
outres,etmp,all
outres,veng,all
outres,strs,all,
outres,epel,all,
outres,eppl,all,
outres,cont,all,
solve
/com,****************************************************
/com,*************** FINISHED SOLVE FOR LS 8 *************
/com,****************************************************
/com,******************* SOLVE FOR LS 9 OF 10 ****************
esel,all
/nopr
/gopr
nsub,1,1,1
time,9.
outres,erase
outres,all,none
outres,nsol,all,
outres,rsol,all
outres,eangl,all
outres,etmp,all
outres,veng,all
outres,strs,all,
outres,epel,all,
outres,eppl,all,
outres,cont,all,
solve
/com,****************************************************
/com,*************** FINISHED SOLVE FOR LS 9 *************
/com,****************************************************
/com,******************* SOLVE FOR LS 10 OF 10 ****************
esel,all
/nopr
/gopr
nsub,1,1,1
time,10.
outres,erase
outres,all,none
outres,nsol,all,
outres,rsol,all
outres,eangl,all
outres,etmp,all
outres,veng,all
outres,strs,all,
outres,epel,all,
outres,eppl,all,
outres,cont,all,
solve
/com,****************************************************
/com,*************** FINISHED SOLVE FOR LS 10 *************
save,file,db
*get,_wallasol,active,,time,wall
/nopr
*get,_numnode,node,0,count
*get,_numelem,elem,0,count
*get, _MAXELEMNUM, elem, 0, NUM, MAX
*get, _MAXNODENUM, node, 0, NUM, MAX,,,INTERNAL
*get, _MAXELEMTYPE, etyp, 0, NUM, MAX
*get, _MAXREALCONST, rcon, 0, NUM, MAX
*get,_NSOLTHREADS,active,0,ntfs
*get,_NSOLPROCESSES,active,0,npfs
/gopr
/post1
xmlo,ENCODING,ISO-8859-1
xmlo,parm
/xml,parm,xml
fini
/gopr
*get,_walldone,active,,time,wall
_preptime=(_wallbsol-_wallstrt)*3600
_solvtime=(_wallasol-_wallbsol)*3600
_posttime=(_walldone-_wallasol)*3600
_totaltim=(_walldone-_wallstrt)*3600
*get,_dlbratio,active,0,solu,dlbr
*get,_combtime,active,0,solu,comb
*get,_ssmode,active,0,solu,ssmm
*get,_ndofs,active,0,solu,ndof
*get,_sol_end_time,active,0,set,time
*if,_sol_end_time,eq,10.000000,then
/fclean				!clean distributed files
*endif
/com,--- Total number of nodes = %_numnode%
/com,--- Total number of elements = %_numelem%
/com,--- Element load balance ratio = %_dlbratio%
/com,--- Time to combine distributed files = %_combtime%
/com,--- Sparse memory mode = %_ssmode%
/com,--- Number of DOF = %_ndofs%
/wb,file,end               ! done with WB generated input
